electric-grid/physical/synthetic/synAustinTD/models/syn-austin-D_only-v03/P4U/base/opendss/p4uhs9_1247/Master.dss
Clear

New Circuit.substation_p4uhs9_69 bus1=p4uhs9_69 pu=1.0 basekV=69.0 R1=1e-05 X1=1e-05 R0=1e-05 X0=1e-05

Redirect Transformers.dss
Redirect p4uhs9_1247--p4udt20209/Transformers.dss
Redirect p4uhs9_1247--p4udt18371/Transformers.dss
Redirect p4uhs9_1247--p4udt6157/Transformers.dss
Redirect p4uhs9_1247--p4udt18569/Transformers.dss
Redirect Regulators.dss
Redirect p4uhs9_1247--p4udt18569/Loads.dss
Redirect p4uhs9_1247--p4udt20209/Loads.dss
Redirect p4uhs9_1247--p4udt18371/Loads.dss
Redirect p4uhs9_1247--p4udt6157/Loads.dss
Redirect LineCodes.dss
Redirect p4uhs9_1247--p4udt20209/LineCodes.dss
Redirect p4uhs9_1247--p4udt18371/LineCodes.dss
Redirect p4uhs9_1247--p4udt6157/LineCodes.dss
Redirect p4uhs9_1247--p4udt18569/LineCodes.dss
Redirect Lines.dss
Redirect p4uhs9_1247--p4udt20209/Lines.dss
Redirect p4uhs9_1247--p4udt18371/Lines.dss
Redirect p4uhs9_1247--p4udt6157/Lines.dss
Redirect p4uhs9_1247--p4udt18569/Lines.dss
Redirect p4uhs9_1247--p4udt6157/Capacitors.dss
Redirect p4uhs9_1247--p4udt18371/Capacitors.dss
Redirect p4uhs9_1247--p4udt20209/Capacitors.dss
Redirect p4uhs9_1247--p4udt18569/Capacitors.dss

Set Voltagebases=[0.2080002494301389, 0.48, 7.199560000000001, 12.47, 69.0]

Calcvoltagebases

Buscoords Buscoords.dss

Solve